nrt/data/EMT/EmtCompositeSmibSnubberSeed/smib_dynawo_snub.xiidm
<?xml version="1.0" encoding="UTF-8"?>
<iidm:network xmlns:iidm="http://www.powsybl.org/schema/iidm/1_5" id="emtsmib" caseDate="2024-01-01T00:00:00.000Z" forecastDistance="0" sourceFormat="manual">
    <iidm:substation id="S1" country="FR">
        <iidm:voltageLevel id="VL_GEN" nominalV="1.0" lowVoltageLimit="0.5" highVoltageLimit="1.5" topologyKind="BUS_BREAKER">
            <iidm:busBreakerTopology>
                <iidm:bus id="GEN_BUS" v="0.92" angle="12.317366100610595"/>
            </iidm:busBreakerTopology>
            <iidm:generator id="SM" energySource="OTHER" minP="-100.0" maxP="100.0" voltageRegulatorOn="true" targetP="60.0" targetV="0.92" bus="GEN_BUS" connectableBus="GEN_BUS" p="-60.0" q="4.750684499474707">
                <iidm:minMaxReactiveLimits minQ="-100.0" maxQ="100.0"/>
            </iidm:generator>
        </iidm:voltageLevel>
        <iidm:voltageLevel id="VL_HV" nominalV="1.0" lowVoltageLimit="0.5" highVoltageLimit="1.5" topologyKind="BUS_BREAKER">
            <iidm:busBreakerTopology>
                <iidm:bus id="HV_BUS" v="0.9188104869607574" angle="8.24707560976068"/>
            </iidm:busBreakerTopology>
        </iidm:voltageLevel>
        <iidm:twoWindingsTransformer id="TR" r="0.0" x="0.003" g="0.0" b="0.0" ratedU1="1.0" ratedU2="1.0" voltageLevelId1="VL_GEN" bus1="GEN_BUS" connectableBus1="GEN_BUS" voltageLevelId2="VL_HV" bus2="HV_BUS" connectableBus2="HV_BUS" p1="59.99999186661904" q1="3.2264475665204984" p2="-59.99999186661904" q2="1.0391585155846086"/>
    </iidm:substation>
    <iidm:substation id="S_INF">
        <iidm:voltageLevel id="VL_INF" nominalV="1.0" lowVoltageLimit="0.5" highVoltageLimit="1.5" topologyKind="BUS_BREAKER">
            <iidm:busBreakerTopology>
                <iidm:bus id="INF_BUS" v="0.9" angle="0.0"/>
            </iidm:busBreakerTopology>
        </iidm:voltageLevel>
    </iidm:substation>
    <iidm:line id="LINE" r="0.0006000000000000001" x="0.006" g1="0.0" b1="0.0" g2="0.0" b2="0.0" voltageLevelId1="VL_HV" bus1="HV_BUS" connectableBus1="HV_BUS" voltageLevelId2="VL_INF" bus2="INF_BUS" connectableBus2="INF_BUS" p1="59.9999912264938" q1="6.917396021271655" p2="-59.13578975982949" q2="1.7246186453720735"/>
</iidm:network>
